Circuit: * C:\Users\Server\Dropbox\Y8-Sp\new-ee457\hw-n-proj\Project\8-bit-SR-piso\Testbench.asc

Warning: Pd = 0 is less than W.
Warning: Ps = 0 is less than W.
Warning: Pd = 0 is less than W.
Warning: Ps = 0 is less than W.
Warning: Pd = 0 is less than W.
Warning: Ps = 0 is less than W.
Warning: Pd = 0 is less than W.
Warning: Ps = 0 is less than W.
Direct Newton iteration for .op point succeeded.

Date: Sun Apr 03 16:47:27 2022
Total elapsed time: 0.134 seconds.

tnom = 27
temp = 27
method = modified trap
totiter = 3288
traniter = 3278
tranpoints = 1484
accept = 1347
rejected = 137
matrix size = 8
fillins = 0
solver = Normal
Matrix Compiler1: 300 bytes object code size  0.1/0.1/[0.0]
Matrix Compiler2: 636 bytes object code size  0.1/0.1/[0.1]

